Circuit: * Pixel sensor

Fatal Error: No analysis request found.
